acetone_conf0
                    3D
 Schrodinger Suite 2024-4.
 10  9  0  0  1  0            999 V2000
   -1.3073    0.0398    0.0648 C   0  0  0  0  0  0
    0.0421   -0.0261   -0.5823 C   0  0  0  0  0  0
    0.1238   -0.0804   -1.7997 O   0  0  0  0  0  0
    1.2882   -0.0258    0.2503 C   0  0  0  0  0  0
   -1.8444    0.9461   -0.2853 H   0  0  0  0  0  0
   -1.2135    0.0844    1.1706 H   0  0  0  0  0  0
   -1.8956   -0.8612   -0.2081 H   0  0  0  0  0  0
    1.2819   -0.9028    0.9308 H   0  0  0  0  0  0
    2.1914   -0.0789   -0.3945 H   0  0  0  0  0  0
    1.3332    0.9050    0.8536 H   0  0  0  0  0  0
  1  2  1  0  0  0
  1  5  1  0  0  0
  1  6  1  0  0  0
  1  7  1  0  0  0
  2  3  2  0  0  0
  2  4  1  0  0  0
  4  8  1  0  0  0
  4  9  1  0  0  0
  4 10  1  0  0  0
M  END
> <i_qp_#NandO>
1

> <i_qp_#acid>
0

> <i_qp_#amide>
0

> <i_qp_#amidine>
0

> <i_qp_#amine>
0

> <i_qp_#in34>
0

> <i_qp_#in56>
0

> <i_qp_#metab>
0

> <i_qp_#nonHatm>
4

> <i_qp_#noncon>
0

> <i_qp_#ringatoms>
0

> <i_qp_#rotor>
0

> <i_qp_#rtvFG>
1

> <i_qp_#stars>
10

> <i_qp_CNS>
1

> <i_qp_HumanOralAbsorption>
3

> <i_qp_RuleOfFive>
0

> <i_qp_RuleOfThree>
0

> <r_qp_ACxDN^.5/SA>
0

> <r_qp_CIQPlogS>
0.621427

> <r_qp_EA(eV)>
-0.785035

> <r_qp_FISA>
56.7835

> <r_qp_FOSA>
183.736

> <r_qp_IP(eV)>
10.7415

> <r_qp_Jm>
295.229

> <r_qp_PISA>
0

> <r_qp_PSA>
30.1329

> <r_qp_PercentHumanOralAbsorption>
87.4357

> <r_qp_QPPCaco>
2866.97

> <r_qp_QPPMDCK>
1544.43

> <r_qp_QPlogBB>
0.148018

> <r_qp_QPlogHERG>
-2.26737

> <r_qp_QPlogKhsa>
-0.967433

> <r_qp_QPlogKp>
-2.56602

> <r_qp_QPlogPC16>
1.66004

> <r_qp_QPlogPo/w>
-0.237636

> <r_qp_QPlogPoct>
2.91348

> <r_qp_QPlogPw>
2.65405

> <r_qp_QPlogS>
0.473231

> <r_qp_QPpolrz>
6.93649

> <r_qp_SASA>
240.52

> <r_qp_SAamideO>
0

> <r_qp_SAfluorine>
0

> <r_qp_WPSA>
0

> <r_qp_accptHB>
2

> <r_qp_dip^2/V>
0.0455101

> <r_qp_dipole>
3.85828

> <r_qp_donorHB>
0

> <r_qp_glob>
0.954553

> <r_qp_mol_MW>
58.0798

> <r_qp_volume>
327.099

$$$$
acetone_conf1
                    3D
 Schrodinger Suite 2024-4.
 10  9  0  0  1  0            999 V2000
    1.2681    0.1491   -0.3305 C   0  0  0  0  0  0
    0.0841   -0.0908    0.5588 C   0  0  0  0  0  0
    0.2634   -0.2847    1.7511 O   0  0  0  0  0  0
   -1.3151   -0.0983    0.0179 C   0  0  0  0  0  0
    0.9588    0.3095   -1.3844 H   0  0  0  0  0  0
    1.8178    1.0483    0.0184 H   0  0  0  0  0  0
    1.9464   -0.7288   -0.2899 H   0  0  0  0  0  0
   -1.3289    0.0905   -1.0759 H   0  0  0  0  0  0
   -1.9115    0.6912    0.5214 H   0  0  0  0  0  0
   -1.7830   -1.0859    0.2131 H   0  0  0  0  0  0
  1  2  1  0  0  0
  1  5  1  0  0  0
  1  6  1  0  0  0
  1  7  1  0  0  0
  2  3  2  0  0  0
  2  4  1  0  0  0
  4  8  1  0  0  0
  4  9  1  0  0  0
  4 10  1  0  0  0
M  END
> <i_qp_#NandO>
1

> <i_qp_#acid>
0

> <i_qp_#amide>
0

> <i_qp_#amidine>
0

> <i_qp_#amine>
0

> <i_qp_#in34>
0

> <i_qp_#in56>
0

> <i_qp_#metab>
0

> <i_qp_#nonHatm>
4

> <i_qp_#noncon>
0

> <i_qp_#ringatoms>
0

> <i_qp_#rotor>
0

> <i_qp_#rtvFG>
1

> <i_qp_#stars>
10

> <i_qp_CNS>
1

> <i_qp_HumanOralAbsorption>
3

> <i_qp_RuleOfFive>
0

> <i_qp_RuleOfThree>
0

> <r_qp_ACxDN^.5/SA>
0

> <r_qp_CIQPlogS>
0.621427

> <r_qp_EA(eV)>
-0.779428

> <r_qp_FISA>
56.3424

> <r_qp_FOSA>
184.023

> <r_qp_IP(eV)>
10.7355

> <r_qp_Jm>
302.837

> <r_qp_PISA>
0

> <r_qp_PSA>
30.2252

> <r_qp_PercentHumanOralAbsorption>
87.5103

> <r_qp_QPPCaco>
2894.71

> <r_qp_QPPMDCK>
1560.59

> <r_qp_QPlogBB>
0.150853

> <r_qp_QPlogHERG>
-2.27472

> <r_qp_QPlogKhsa>
-0.969022

> <r_qp_QPlogKp>
-2.55789

> <r_qp_QPlogPC16>
1.6439

> <r_qp_QPlogPo/w>
-0.237687

> <r_qp_QPlogPoct>
2.88857

> <r_qp_QPlogPw>
2.65068

> <r_qp_QPlogS>
0.473744

> <r_qp_QPpolrz>
6.91457

> <r_qp_SASA>
240.365

> <r_qp_SAamideO>
0

> <r_qp_SAfluorine>
0

> <r_qp_WPSA>
0

> <r_qp_accptHB>
2

> <r_qp_dip^2/V>
0.044443

> <r_qp_dipole>
3.80958

> <r_qp_donorHB>
0

> <r_qp_glob>
0.9541

> <r_qp_mol_MW>
58.0798

> <r_qp_volume>
326.551

$$$$
acetone_conf2
                    3D
 Schrodinger Suite 2024-4.
 10  9  0  0  1  0            999 V2000
   -1.2853    0.0779    0.2853 C   0  0  0  0  0  0
    0.0854    0.5589   -0.0889 C   0  0  0  0  0  0
    0.2677    1.7514   -0.2786 O   0  0  0  0  0  0
    1.2375   -0.3906   -0.2355 C   0  0  0  0  0  0
   -2.0042    0.3454   -0.5173 H   0  0  0  0  0  0
   -1.6027    0.5625    1.2324 H   0  0  0  0  0  0
   -1.3052   -1.0229    0.4264 H   0  0  0  0  0  0
    0.9291   -1.4378   -0.0349 H   0  0  0  0  0  0
    1.6380   -0.3309   -1.2692 H   0  0  0  0  0  0
    2.0395   -0.1139    0.4805 H   0  0  0  0  0  0
  1  2  1  0  0  0
  1  5  1  0  0  0
  1  6  1  0  0  0
  1  7  1  0  0  0
  2  3  2  0  0  0
  2  4  1  0  0  0
  4  8  1  0  0  0
  4  9  1  0  0  0
  4 10  1  0  0  0
M  END
> <i_qp_#NandO>
1

> <i_qp_#acid>
0

> <i_qp_#amide>
0

> <i_qp_#amidine>
0

> <i_qp_#amine>
0

> <i_qp_#in34>
0

> <i_qp_#in56>
0

> <i_qp_#metab>
0

> <i_qp_#nonHatm>
4

> <i_qp_#noncon>
0

> <i_qp_#ringatoms>
0

> <i_qp_#rotor>
0

> <i_qp_#rtvFG>
1

> <i_qp_#stars>
10

> <i_qp_CNS>
1

> <i_qp_HumanOralAbsorption>
3

> <i_qp_RuleOfFive>
0

> <i_qp_RuleOfThree>
0

> <r_qp_ACxDN^.5/SA>
0

> <r_qp_CIQPlogS>
0.621427

> <r_qp_EA(eV)>
-0.779528

> <r_qp_FISA>
56.3415

> <r_qp_FOSA>
184.024

> <r_qp_IP(eV)>
10.7355

> <r_qp_Jm>
302.848

> <r_qp_PISA>
0

> <r_qp_PSA>
30.2249

> <r_qp_PercentHumanOralAbsorption>
87.5104

> <r_qp_QPPCaco>
2894.76

> <r_qp_QPPMDCK>
1560.63

> <r_qp_QPlogBB>
0.150858

> <r_qp_QPlogHERG>
-2.27474

> <r_qp_QPlogKhsa>
-0.969025

> <r_qp_QPlogKp>
-2.55787

> <r_qp_QPlogPC16>
1.64386

> <r_qp_QPlogPo/w>
-0.237687

> <r_qp_QPlogPoct>
2.88848

> <r_qp_QPlogPw>
2.65067

> <r_qp_QPlogS>
0.473744

> <r_qp_QPpolrz>
6.91454

> <r_qp_SASA>
240.365

> <r_qp_SAamideO>
0

> <r_qp_SAfluorine>
0

> <r_qp_WPSA>
0

> <r_qp_accptHB>
2

> <r_qp_dip^2/V>
0.0444379

> <r_qp_dipole>
3.80936

> <r_qp_donorHB>
0

> <r_qp_glob>
0.954098

> <r_qp_mol_MW>
58.0798

> <r_qp_volume>
326.55

$$$$
acetone_conf3
                    3D
 Schrodinger Suite 2024-4.
 10  9  0  0  1  0            999 V2000
   -1.2187    0.4759    0.1052 C   0  0  0  0  0  0
   -0.0535   -0.4175    0.4054 C   0  0  0  0  0  0
   -0.1594   -1.2917    1.2518 O   0  0  0  0  0  0
    1.2441   -0.2492   -0.3237 C   0  0  0  0  0  0
   -1.5037    0.3706   -0.9625 H   0  0  0  0  0  0
   -0.9408    1.5315    0.3071 H   0  0  0  0  0  0
   -2.0922    0.2081    0.7374 H   0  0  0  0  0  0
    1.1806    0.5830   -1.0565 H   0  0  0  0  0  0
    1.4904   -1.1857   -0.8667 H   0  0  0  0  0  0
    2.0532   -0.0250    0.4026 H   0  0  0  0  0  0
  1  2  1  0  0  0
  1  5  1  0  0  0
  1  6  1  0  0  0
  1  7  1  0  0  0
  2  3  2  0  0  0
  2  4  1  0  0  0
  4  8  1  0  0  0
  4  9  1  0  0  0
  4 10  1  0  0  0
M  END
> <i_qp_#NandO>
1

> <i_qp_#acid>
0

> <i_qp_#amide>
0

> <i_qp_#amidine>
0

> <i_qp_#amine>
0

> <i_qp_#in34>
0

> <i_qp_#in56>
0

> <i_qp_#metab>
0

> <i_qp_#nonHatm>
4

> <i_qp_#noncon>
0

> <i_qp_#ringatoms>
0

> <i_qp_#rotor>
0

> <i_qp_#rtvFG>
1

> <i_qp_#stars>
10

> <i_qp_CNS>
1

> <i_qp_HumanOralAbsorption>
3

> <i_qp_RuleOfFive>
0

> <i_qp_RuleOfThree>
0

> <r_qp_ACxDN^.5/SA>
0

> <r_qp_CIQPlogS>
0.621427

> <r_qp_EA(eV)>
-0.784658

> <r_qp_FISA>
56.7839

> <r_qp_FOSA>
183.737

> <r_qp_IP(eV)>
10.7416

> <r_qp_Jm>
295.213

> <r_qp_PISA>
0

> <r_qp_PSA>
30.1332

> <r_qp_PercentHumanOralAbsorption>
87.4357

> <r_qp_QPPCaco>
2866.94

> <r_qp_QPPMDCK>
1544.42

> <r_qp_QPlogBB>
0.148014

> <r_qp_QPlogHERG>
-2.2674

> <r_qp_QPlogKhsa>
-0.967431

> <r_qp_QPlogKp>
-2.56603

> <r_qp_QPlogPC16>
1.66003

> <r_qp_QPlogPo/w>
-0.237636

> <r_qp_QPlogPoct>
2.9136

> <r_qp_QPlogPw>
2.65405

> <r_qp_QPlogS>
0.473228

> <r_qp_QPpolrz>
6.93651

> <r_qp_SASA>
240.52

> <r_qp_SAamideO>
0

> <r_qp_SAfluorine>
0

> <r_qp_WPSA>
0

> <r_qp_accptHB>
2

> <r_qp_dip^2/V>
0.0455183

> <r_qp_dipole>
3.85863

> <r_qp_donorHB>
0

> <r_qp_glob>
0.954552

> <r_qp_mol_MW>
58.0798

> <r_qp_volume>
327.099

$$$$
acetone_conf4
                    3D
 Schrodinger Suite 2024-4.
 10  9  0  0  1  0            999 V2000
   -1.2785   -0.0767   -0.3149 C   0  0  0  0  0  0
    0.0038    0.5549    0.1402 C   0  0  0  0  0  0
    0.0120    1.7388    0.4394 O   0  0  0  0  0  0
    1.2763   -0.2337    0.2364 C   0  0  0  0  0  0
   -1.1397   -1.1520   -0.5528 H   0  0  0  0  0  0
   -2.0412    0.0135    0.4867 H   0  0  0  0  0  0
   -1.6455    0.4431   -1.2246 H   0  0  0  0  0  0
    2.0428    0.2165   -0.4286 H   0  0  0  0  0  0
    1.1228   -1.2911   -0.0645 H   0  0  0  0  0  0
    1.6471   -0.2132    1.2826 H   0  0  0  0  0  0
  1  2  1  0  0  0
  1  5  1  0  0  0
  1  6  1  0  0  0
  1  7  1  0  0  0
  2  3  2  0  0  0
  2  4  1  0  0  0
  4  8  1  0  0  0
  4  9  1  0  0  0
  4 10  1  0  0  0
M  END
> <i_qp_#NandO>
1

> <i_qp_#acid>
0

> <i_qp_#amide>
0

> <i_qp_#amidine>
0

> <i_qp_#amine>
0

> <i_qp_#in34>
0

> <i_qp_#in56>
0

> <i_qp_#metab>
0

> <i_qp_#nonHatm>
4

> <i_qp_#noncon>
0

> <i_qp_#ringatoms>
0

> <i_qp_#rotor>
0

> <i_qp_#rtvFG>
1

> <i_qp_#stars>
10

> <i_qp_CNS>
1

> <i_qp_HumanOralAbsorption>
3

> <i_qp_RuleOfFive>
0

> <i_qp_RuleOfThree>
0

> <r_qp_ACxDN^.5/SA>
0

> <r_qp_CIQPlogS>
0.621427

> <r_qp_EA(eV)>
-0.779702

> <r_qp_FISA>
56.3413

> <r_qp_FOSA>
184.023

> <r_qp_IP(eV)>
10.7354

> <r_qp_Jm>
302.861

> <r_qp_PISA>
0

> <r_qp_PSA>
30.2247

> <r_qp_PercentHumanOralAbsorption>
87.5105

> <r_qp_QPPCaco>
2894.78

> <r_qp_QPPMDCK>
1560.63

> <r_qp_QPlogBB>
0.150861

> <r_qp_QPlogHERG>
-2.27471

> <r_qp_QPlogKhsa>
-0.969027

> <r_qp_QPlogKp>
-2.55787

> <r_qp_QPlogPC16>
1.64388

> <r_qp_QPlogPo/w>
-0.237687

> <r_qp_QPlogPoct>
2.88846

> <r_qp_QPlogPw>
2.65067

> <r_qp_QPlogS>
0.473747

> <r_qp_QPpolrz>
6.91451

> <r_qp_SASA>
240.365

> <r_qp_SAamideO>
0

> <r_qp_SAfluorine>
0

> <r_qp_WPSA>
0

> <r_qp_accptHB>
2

> <r_qp_dip^2/V>
0.0444372

> <r_qp_dipole>
3.80932

> <r_qp_donorHB>
0

> <r_qp_glob>
0.9541

> <r_qp_mol_MW>
58.0798

> <r_qp_volume>
326.55

$$$$
acetone_conf5
                    3D
 Schrodinger Suite 2024-4.
 10  9  0  0  1  0            999 V2000
    1.2782   -0.1354   -0.2660 C   0  0  0  0  0  0
    0.0376    0.5244    0.2552 C   0  0  0  0  0  0
    0.1099    1.6204    0.7894 O   0  0  0  0  0  0
   -1.2948   -0.1481    0.1275 C   0  0  0  0  0  0
    1.1772   -0.3095   -1.3576 H   0  0  0  0  0  0
    1.4266   -1.1084    0.2474 H   0  0  0  0  0  0
    2.1685    0.5043   -0.0859 H   0  0  0  0  0  0
   -1.7299   -0.3072    1.1363 H   0  0  0  0  0  0
   -1.9792    0.4915   -0.4684 H   0  0  0  0  0  0
   -1.1940   -1.1319   -0.3779 H   0  0  0  0  0  0
  1  2  1  0  0  0
  1  5  1  0  0  0
  1  6  1  0  0  0
  1  7  1  0  0  0
  2  3  2  0  0  0
  2  4  1  0  0  0
  4  8  1  0  0  0
  4  9  1  0  0  0
  4 10  1  0  0  0
M  END
> <i_qp_#NandO>
1

> <i_qp_#acid>
0

> <i_qp_#amide>
0

> <i_qp_#amidine>
0

> <i_qp_#amine>
0

> <i_qp_#in34>
0

> <i_qp_#in56>
0

> <i_qp_#metab>
0

> <i_qp_#nonHatm>
4

> <i_qp_#noncon>
0

> <i_qp_#ringatoms>
0

> <i_qp_#rotor>
0

> <i_qp_#rtvFG>
1

> <i_qp_#stars>
10

> <i_qp_CNS>
1

> <i_qp_HumanOralAbsorption>
3

> <i_qp_RuleOfFive>
0

> <i_qp_RuleOfThree>
0

> <r_qp_ACxDN^.5/SA>
0

> <r_qp_CIQPlogS>
0.621427

> <r_qp_EA(eV)>
-0.784735

> <r_qp_FISA>
56.784

> <r_qp_FOSA>
183.734

> <r_qp_IP(eV)>
10.7415

> <r_qp_Jm>
295.237

> <r_qp_PISA>
0

> <r_qp_PSA>
30.1332

> <r_qp_PercentHumanOralAbsorption>
87.4356

> <r_qp_QPPCaco>
2866.93

> <r_qp_QPPMDCK>
1544.41

> <r_qp_QPlogBB>
0.148015

> <r_qp_QPlogHERG>
-2.26735

> <r_qp_QPlogKhsa>
-0.967438

> <r_qp_QPlogKp>
-2.56603

> <r_qp_QPlogPC16>
1.66004

> <r_qp_QPlogPo/w>
-0.237637

> <r_qp_QPlogPoct>
2.91352

> <r_qp_QPlogPw>
2.65405

> <r_qp_QPlogS>
0.473234

> <r_qp_QPpolrz>
6.93641

> <r_qp_SASA>
240.518

> <r_qp_SAamideO>
0

> <r_qp_SAfluorine>
0

> <r_qp_WPSA>
0

> <r_qp_accptHB>
2

> <r_qp_dip^2/V>
0.045515

> <r_qp_dipole>
3.85847

> <r_qp_donorHB>
0

> <r_qp_glob>
0.954555

> <r_qp_mol_MW>
58.0798

> <r_qp_volume>
327.097

$$$$
acetone_conf6
                    3D
 Schrodinger Suite 2024-4.
 10  9  0  0  1  0            999 V2000
   -1.2659   -0.2768    0.1890 C   0  0  0  0  0  0
   -0.0624    0.2750   -0.5119 C   0  0  0  0  0  0
   -0.1993    0.8487   -1.5814 O   0  0  0  0  0  0
    1.3033    0.1287    0.0875 C   0  0  0  0  0  0
   -1.9780    0.5457    0.4099 H   0  0  0  0  0  0
   -0.9774   -0.7662    1.1435 H   0  0  0  0  0  0
   -1.7642   -1.0264   -0.4607 H   0  0  0  0  0  0
    2.0711    0.5951   -0.5662 H   0  0  0  0  0  0
    1.3295    0.6242    1.0805 H   0  0  0  0  0  0
    1.5433   -0.9482    0.2097 H   0  0  0  0  0  0
  1  2  1  0  0  0
  1  5  1  0  0  0
  1  6  1  0  0  0
  1  7  1  0  0  0
  2  3  2  0  0  0
  2  4  1  0  0  0
  4  8  1  0  0  0
  4  9  1  0  0  0
  4 10  1  0  0  0
M  END
> <i_qp_#NandO>
1

> <i_qp_#acid>
0

> <i_qp_#amide>
0

> <i_qp_#amidine>
0

> <i_qp_#amine>
0

> <i_qp_#in34>
0

> <i_qp_#in56>
0

> <i_qp_#metab>
0

> <i_qp_#nonHatm>
4

> <i_qp_#noncon>
0

> <i_qp_#ringatoms>
0

> <i_qp_#rotor>
0

> <i_qp_#rtvFG>
1

> <i_qp_#stars>
10

> <i_qp_CNS>
1

> <i_qp_HumanOralAbsorption>
3

> <i_qp_RuleOfFive>
0

> <i_qp_RuleOfThree>
0

> <r_qp_ACxDN^.5/SA>
0

> <r_qp_CIQPlogS>
0.621427

> <r_qp_EA(eV)>
-0.785035

> <r_qp_FISA>
56.7838

> <r_qp_FOSA>
183.736

> <r_qp_IP(eV)>
10.7415

> <r_qp_Jm>
295.225

> <r_qp_PISA>
0

> <r_qp_PSA>
30.133

> <r_qp_PercentHumanOralAbsorption>
87.4357

> <r_qp_QPPCaco>
2866.95

> <r_qp_QPPMDCK>
1544.42

> <r_qp_QPlogBB>
0.148017

> <r_qp_QPlogHERG>
-2.26736

> <r_qp_QPlogKhsa>
-0.967432

> <r_qp_QPlogKp>
-2.56603

> <r_qp_QPlogPC16>
1.66006

> <r_qp_QPlogPo/w>
-0.237636

> <r_qp_QPlogPoct>
2.91347

> <r_qp_QPlogPw>
2.65405

> <r_qp_QPlogS>
0.473231

> <r_qp_QPpolrz>
6.9365

> <r_qp_SASA>
240.52

> <r_qp_SAamideO>
0

> <r_qp_SAfluorine>
0

> <r_qp_WPSA>
0

> <r_qp_accptHB>
2

> <r_qp_dip^2/V>
0.045509

> <r_qp_dipole>
3.85823

> <r_qp_donorHB>
0

> <r_qp_glob>
0.954554

> <r_qp_mol_MW>
58.0798

> <r_qp_volume>
327.099

$$$$
acetone_conf7
                    3D
 Schrodinger Suite 2024-4.
 10  9  0  0  1  0            999 V2000
   -1.3189    0.0063    0.0088 C   0  0  0  0  0  0
    0.0648   -0.3197   -0.4703 C   0  0  0  0  0  0
    0.2031   -1.0018   -1.4737 O   0  0  0  0  0  0
    1.2826    0.1726    0.2543 C   0  0  0  0  0  0
   -1.8642    0.5614   -0.7829 H   0  0  0  0  0  0
   -1.8646   -0.9340    0.2336 H   0  0  0  0  0  0
   -1.2946    0.6301    0.9266 H   0  0  0  0  0  0
    1.0092    0.7774    1.1440 H   0  0  0  0  0  0
    1.8911   -0.6939    0.5880 H   0  0  0  0  0  0
    1.8914    0.8015   -0.4285 H   0  0  0  0  0  0
  1  2  1  0  0  0
  1  5  1  0  0  0
  1  6  1  0  0  0
  1  7  1  0  0  0
  2  3  2  0  0  0
  2  4  1  0  0  0
  4  8  1  0  0  0
  4  9  1  0  0  0
  4 10  1  0  0  0
M  END
> <i_qp_#NandO>
1

> <i_qp_#acid>
0

> <i_qp_#amide>
0

> <i_qp_#amidine>
0

> <i_qp_#amine>
0

> <i_qp_#in34>
0

> <i_qp_#in56>
0

> <i_qp_#metab>
0

> <i_qp_#nonHatm>
4

> <i_qp_#noncon>
0

> <i_qp_#ringatoms>
0

> <i_qp_#rotor>
0

> <i_qp_#rtvFG>
1

> <i_qp_#stars>
10

> <i_qp_CNS>
1

> <i_qp_HumanOralAbsorption>
3

> <i_qp_RuleOfFive>
0

> <i_qp_RuleOfThree>
0

> <r_qp_ACxDN^.5/SA>
0

> <r_qp_CIQPlogS>
0.621427

> <r_qp_EA(eV)>
-0.779742

> <r_qp_FISA>
56.3412

> <r_qp_FOSA>
184.022

> <r_qp_IP(eV)>
10.7354

> <r_qp_Jm>
302.883

> <r_qp_PISA>
0

> <r_qp_PSA>
30.2248

> <r_qp_PercentHumanOralAbsorption>
87.5105

> <r_qp_QPPCaco>
2894.79

> <r_qp_QPPMDCK>
1560.64

> <r_qp_QPlogBB>
0.150864

> <r_qp_QPlogHERG>
-2.27467

> <r_qp_QPlogKhsa>
-0.969032

> <r_qp_QPlogKp>
-2.55787

> <r_qp_QPlogPC16>
1.64389

> <r_qp_QPlogPo/w>
-0.237688

> <r_qp_QPlogPoct>
2.88843

> <r_qp_QPlogPw>
2.65066

> <r_qp_QPlogS>
0.473751

> <r_qp_QPpolrz>
6.91444

> <r_qp_SASA>
240.363

> <r_qp_SAamideO>
0

> <r_qp_SAfluorine>
0

> <r_qp_WPSA>
0

> <r_qp_accptHB>
2

> <r_qp_dip^2/V>
0.0444361

> <r_qp_dipole>
3.80926

> <r_qp_donorHB>
0

> <r_qp_glob>
0.954102

> <r_qp_mol_MW>
58.0798

> <r_qp_volume>
326.548

$$$$
acetone_conf8
                    3D
 Schrodinger Suite 2024-4.
 10  9  0  0  1  0            999 V2000
   -1.3071    0.1145   -0.1335 C   0  0  0  0  0  0
   -0.0061   -0.3077    0.4825 C   0  0  0  0  0  0
   -0.0192   -0.9643    1.5121 O   0  0  0  0  0  0
    1.3106    0.0577   -0.1364 C   0  0  0  0  0  0
   -1.1456    0.7026   -1.0610 H   0  0  0  0  0  0
   -1.8737    0.7393    0.5883 H   0  0  0  0  0  0
   -1.9079   -0.7848   -0.3841 H   0  0  0  0  0  0
    1.1726    0.6523   -1.0636 H   0  0  0  0  0  0
    1.8712   -0.8668   -0.3883 H   0  0  0  0  0  0
    1.9054    0.6573    0.5840 H   0  0  0  0  0  0
  1  2  1  0  0  0
  1  5  1  0  0  0
  1  6  1  0  0  0
  1  7  1  0  0  0
  2  3  2  0  0  0
  2  4  1  0  0  0
  4  8  1  0  0  0
  4  9  1  0  0  0
  4 10  1  0  0  0
M  END
> <i_qp_#NandO>
1

> <i_qp_#acid>
0

> <i_qp_#amide>
0

> <i_qp_#amidine>
0

> <i_qp_#amine>
0

> <i_qp_#in34>
0

> <i_qp_#in56>
0

> <i_qp_#metab>
0

> <i_qp_#nonHatm>
4

> <i_qp_#noncon>
0

> <i_qp_#ringatoms>
0

> <i_qp_#rotor>
0

> <i_qp_#rtvFG>
1

> <i_qp_#stars>
10

> <i_qp_CNS>
1

> <i_qp_HumanOralAbsorption>
3

> <i_qp_RuleOfFive>
0

> <i_qp_RuleOfThree>
0

> <r_qp_ACxDN^.5/SA>
0

> <r_qp_CIQPlogS>
0.621427

> <r_qp_EA(eV)>
-0.779305

> <r_qp_FISA>
56.342

> <r_qp_FOSA>
184.022

> <r_qp_IP(eV)>
10.7355

> <r_qp_Jm>
302.861

> <r_qp_PISA>
0

> <r_qp_PSA>
30.225

> <r_qp_PercentHumanOralAbsorption>
87.5104

> <r_qp_QPPCaco>
2894.74

> <r_qp_QPPMDCK>
1560.61

> <r_qp_QPlogBB>
0.150859

> <r_qp_QPlogHERG>
-2.27468

> <r_qp_QPlogKhsa>
-0.969027

> <r_qp_QPlogKp>
-2.55788

> <r_qp_QPlogPC16>
1.64391

> <r_qp_QPlogPo/w>
-0.237687

> <r_qp_QPlogPoct>
2.88866

> <r_qp_QPlogPw>
2.65067

> <r_qp_QPlogS>
0.473748

> <r_qp_QPpolrz>
6.91451

> <r_qp_SASA>
240.364

> <r_qp_SAamideO>
0

> <r_qp_SAfluorine>
0

> <r_qp_WPSA>
0

> <r_qp_accptHB>
2

> <r_qp_dip^2/V>
0.0444511

> <r_qp_dipole>
3.80992

> <r_qp_donorHB>
0

> <r_qp_glob>
0.954102

> <r_qp_mol_MW>
58.0798

> <r_qp_volume>
326.549

$$$$
acetone_conf9
                    3D
 Schrodinger Suite 2024-4.
 10  9  0  0  1  0            999 V2000
    1.3019    0.0317   -0.1634 C   0  0  0  0  0  0
   -0.0041   -0.3715    0.4511 C   0  0  0  0  0  0
   -0.0189   -1.1476    1.3941 O   0  0  0  0  0  0
   -1.2961    0.1689   -0.0805 C   0  0  0  0  0  0
    2.1500   -0.4636    0.3561 H   0  0  0  0  0  0
    1.4271    1.1319   -0.0846 H   0  0  0  0  0  0
    1.3167   -0.2623   -1.2338 H   0  0  0  0  0  0
   -1.9359   -0.6694   -0.4273 H   0  0  0  0  0  0
   -1.8256    0.7245    0.7216 H   0  0  0  0  0  0
   -1.1153    0.8574   -0.9332 H   0  0  0  0  0  0
  1  2  1  0  0  0
  1  5  1  0  0  0
  1  6  1  0  0  0
  1  7  1  0  0  0
  2  3  2  0  0  0
  2  4  1  0  0  0
  4  8  1  0  0  0
  4  9  1  0  0  0
  4 10  1  0  0  0
M  END
> <i_qp_#NandO>
1

> <i_qp_#acid>
0

> <i_qp_#amide>
0

> <i_qp_#amidine>
0

> <i_qp_#amine>
0

> <i_qp_#in34>
0

> <i_qp_#in56>
0

> <i_qp_#metab>
0

> <i_qp_#nonHatm>
4

> <i_qp_#noncon>
0

> <i_qp_#ringatoms>
0

> <i_qp_#rotor>
0

> <i_qp_#rtvFG>
1

> <i_qp_#stars>
10

> <i_qp_CNS>
1

> <i_qp_HumanOralAbsorption>
3

> <i_qp_RuleOfFive>
0

> <i_qp_RuleOfThree>
0

> <r_qp_ACxDN^.5/SA>
0

> <r_qp_CIQPlogS>
0.621427

> <r_qp_EA(eV)>
-0.784794

> <r_qp_FISA>
56.783

> <r_qp_FOSA>
183.738

> <r_qp_IP(eV)>
10.7415

> <r_qp_Jm>
295.216

> <r_qp_PISA>
0

> <r_qp_PSA>
30.1329

> <r_qp_PercentHumanOralAbsorption>
87.4358

> <r_qp_QPPCaco>
2866.99

> <r_qp_QPPMDCK>
1544.45

> <r_qp_QPlogBB>
0.148021

> <r_qp_QPlogHERG>
-2.26739

> <r_qp_QPlogKhsa>
-0.967426

> <r_qp_QPlogKp>
-2.56601

> <r_qp_QPlogPC16>
1.66005

> <r_qp_QPlogPo/w>
-0.237634

> <r_qp_QPlogPoct>
2.9136

> <r_qp_QPlogPw>
2.65405

> <r_qp_QPlogS>
0.473227

> <r_qp_QPpolrz>
6.93658

> <r_qp_SASA>
240.521

> <r_qp_SAamideO>
0

> <r_qp_SAfluorine>
0

> <r_qp_WPSA>
0

> <r_qp_accptHB>
2

> <r_qp_dip^2/V>
0.0455174

> <r_qp_dipole>
3.8586

> <r_qp_donorHB>
0

> <r_qp_glob>
0.954552

> <r_qp_mol_MW>
58.0798

> <r_qp_volume>
327.101

$$$$
